*Heading
** Job name: Job-1 Model name: Model-1
** Generated by: Abaqus/CAE 6.14-4
*Preprint, echo=NO, model=NO, history=NO, contact=NO
**
** PARTS
**
*Part, name=Part-1
*Node
      1,           0.,          2.5,           0.
      2,           0.,           0.,           0.
      3,         1.25,          2.5,           0.
      4,         1.25,         1.25,           0.
      5,         3.75,         1.25,           0.
      6,         3.75,          2.5,           0.
      7,           5.,          2.5,           0.
      8,           5.,           0.,           0.
      9,           0.,         1.25,           0.
     10,          2.5,         1.25,           0.
     11,           5.,         1.25,           0.
     12,         1.25,           0.,           0.
     13,          2.5,           0.,           0.
     14,         3.75,           0.,           0.
     15,           0.,          2.5,         1.25
     16,           0.,           0.,         1.25
     17,         1.25,          2.5,         1.25
     18,         1.25,         1.25,         1.25
     19,         3.75,         1.25,         1.25
     20,         3.75,          2.5,         1.25
** ... 162 like lines cut
*Element, type=C3D8
 1,  12,   4,   9,   2,  26,  18,  23,  16
 2,   9,   4,   3,   1,  23,  18,  17,  15
 3,  13,  10,   4,  12,  27,  24,  18,  26
 4,  14,   5,  10,  13,  28,  19,  24,  27
 5,   6,   5,  11,   7,  20,  19,  25,  21
 6,  11,   5,  14,   8,  25,  19,  28,  22
 7,  26,  18,  23,  16,  40,  32,  37,  30
 8,  23,  18,  17,  15,  37,  32,  31,  29
 9,  27,  24,  18,  26,  41,  38,  32,  40
10,  28,  19,  24,  27,  42,  33,  38,  41
11,  20,  19,  25,  21,  34,  33,  39,  35
12,  25,  19,  28,  22,  39,  33,  42,  36
13,  40,  32,  37,  30,  54,  46,  51,  44
14,  37,  32,  31,  29,  51,  46,  45,  43
15,  41,  38,  32,  40,  55,  52,  46,  54
16,  42,  33,  38,  41,  56,  47,  52,  55
17,  34,  33,  39,  35,  48,  47,  53,  49
18,  39,  33,  42,  36,  53,  47,  56,  50
19,  54,  46,  51,  44,  68,  60,  65,  58
20,  51,  46,  45,  43,  65,  60,  59,  57
** ... 52 like lines cut
*Nset, nset=Set-1, generate
   1,  182,    1
*Elset, elset=Set-1, generate
  1,  72,   1
** Section: Section-1
*Solid Section, elset=Set-1, material=Material-1
,
*End Part
**  
**
** ASSEMBLY
**
*Assembly, name=Assembly
**  
*Instance, name=Part-1-1, part=Part-1
*End Instance
**  
*Nset, nset=Set-1, instance=Part-1-1, generate
 169,  182,    1
*Elset, elset=Set-1, instance=Part-1-1, generate
 67,  72,   1
*Nset, nset=Set-2, instance=Part-1-1
 4, 5
*Nset, nset=Set-3, instance=Part-1-1
 5,
*End Assembly
** 
** MATERIALS
** 
*Material, name=Material-1
*Elastic
 2.1e+06, 0.3
** ----------------------------------------------------------------
** 
** STEP: Step-1
** 
*Step, name=Step-1, nlgeom=NO
*Static
1., 1., 1e-05, 1.
** 
** BOUNDARY CONDITIONS
** 
** Name: BC-1 Type: 对称/反对称/完全固定
*Boundary
Set-1, ENCASTRE
** 
** LOADS
** 
** Name: Load-1   Type: Concentrated force
*Cload
Set-3, 3, 10.
** 
** OUTPUT REQUESTS
** 
*Restart, write, frequency=0
** 
** FIELD OUTPUT: F-Output-1
** 
*Output, field, variable=PRESELECT
** 
** HISTORY OUTPUT: H-Output-1
** 
*Output, history, variable=PRESELECT
*End Step
