*Heading
** Job name: Job-1 Model name: Job-1
** Generated by: Abaqus/CAE 2020
*Preprint, echo=NO, model=NO, history=NO, contact=NO
**
** PARTS
**
*Part, name=PART-1
*Node
      1,           0.,           0.,           0.
      2,           0.,        0.125,           0.
      3,           0.,         0.25,           0.
      4,           0.,        0.375,           0.
      5,           0.,          0.5,           0.
      6,           0.,        0.625,           0.
      7,           0.,         0.75,           0.
      8,           0.,        0.875,           0.
      9,           0.,           1.,           0.
     10,           0.,           1.,        0.125
     11,           0.,           1.,         0.25
     12,           0.,           1.,        0.375
     13,           0.,           1.,          0.5
     14,           0.,           1.,        0.625
     15,           0.,           1.,         0.75
     16,           0.,           1.,        0.875
     17,           0.,           1.,           1.
     18,           0.,        0.875,           1.
     19,           0.,         0.75,           1.
     20,           0.,        0.625,           1.
** ... 4982 like lines cut
*Element, type=C3D10
1397, 1785, 2218, 2804, 2816, 2222, 2921, 2922, 2923, 2924, 2925
1398, 2218, 1785, 1789, 2816, 2222, 1793, 2223, 2924, 2923, 2926
1399,   62,   98,   58, 2816,   94,   92,   66, 2927, 2928, 2929
1400,   98,   53,   58, 2816,   99,   87,   92, 2928, 2930, 2929
1401, 1789,   13,   58, 2816, 1790,   60, 2931, 2926, 2932, 2929
1402,   13,   62,   58, 2816,   63,   66,   60, 2932, 2927, 2929
1403, 1785,   13, 1789, 2816, 1787, 1790, 1793, 2923, 2932, 2926
1404, 1785,   62,   13, 2816, 2933,   63, 1787, 2923, 2927, 2932
1405,   67,   98,   62, 2816,   95,   94,   85, 2934, 2928, 2927
1406,   71,   98,   67, 2817,  100,   95,   75, 2935, 2936, 2937
1407, 2787, 2346, 2350, 2817, 2791, 2354, 2792, 2938, 2939, 2940
1408,   67,   98, 2816, 2817,   95, 2928, 2934, 2937, 2936, 2941
1409, 2819, 2804, 2820, 2822, 2942, 2943, 2944, 2945, 2946, 2947
1410,   21,   67, 2350, 2817,   69, 2948, 2351, 2949, 2937, 2940
1411, 2346,   21, 2350, 2817, 2348, 2351, 2354, 2939, 2949, 2940
1412,   21,   71,   67, 2817,   72,   75,   69, 2949, 2935, 2937
1413,   21, 2346,   71, 2817, 2348, 2950,   72, 2949, 2939, 2935
1414, 2787, 2355, 2804, 2817, 2793, 2951, 2952, 2938, 2953, 2954
1415, 2787, 2350, 2355, 2817, 2792, 2569, 2793, 2938, 2940, 2953
1416, 2787, 2242, 2346, 2817, 2789, 2568, 2791, 2938, 2955, 2939
** ... 2633 like lines cut
*Elset, elset=SET-1, generate
 1397,  4049,     1
** Section: Section-1-SET-1
*Solid Section, elset=SET-1, material=MATERIAL-1
,
*End Part
**  
**
** ASSEMBLY
**
*Assembly, name=Assembly
**  
*Instance, name=PART-1-1, part=PART-1
*End Instance
**  
*Nset, nset=SET-1, instance=PART-1-1
  181,  182,  183,  184,  185,  186,  187,  188,  189,  838,  839,  840,  841,  842,  843,  844
  845, 1494, 1495, 1496, 1497, 1498, 1499, 1500, 1501, 1502, 1503, 1504, 1505, 1506, 1507, 1508
 1509, 1510, 1511, 1512, 1513, 1514, 1515, 1516, 1517, 1518, 1519, 1520, 1521, 1522, 1523, 1524
 1525, 1526, 1527, 1528, 1529, 1530, 1531, 1532, 1533, 1534, 1535, 1536, 1537, 1538, 1539, 1540
 1541, 1542, 1543, 1544, 1545, 1546, 1547, 1548, 1549, 1550, 1551, 1552, 1553, 1554, 1555, 1556
 1557, 1558, 1559, 1560, 1561, 1562, 1563, 1564, 1565, 1566, 1567, 1568, 1569, 1570, 1571, 1572
 1573, 1574, 1575, 1576, 1577
*Nset, nset=SET-2, instance=PART-1-1, generate
   1,  101,    1
*Nset, nset=Set-3, instance=PART-1-1
  181,  182,  183,  184,  185,  186,  187,  188,  189,  838,  839,  840,  841,  842,  843,  844
  845, 1494, 1495, 1496, 1497, 1498, 1499, 1500, 1501, 1502, 1503, 1504, 1505, 1506, 1507, 1508
 1509, 1510, 1511, 1512, 1513, 1514, 1515, 1516, 1517, 1518, 1519, 1520, 1521, 1522, 1523, 1524
 1525, 1526, 1527, 1528, 1529, 1530, 1531, 1532, 1533, 1534, 1535, 1536, 1537, 1538, 1539, 1540
 1541, 1542, 1543, 1544, 1545, 1546, 1547, 1548, 1549, 1550, 1551, 1552, 1553, 1554, 1555, 1556
 1557, 1558, 1559, 1560, 1561, 1562, 1563, 1564, 1565, 1566, 1567, 1568, 1569, 1570, 1571, 1572
 1573, 1574, 1575, 1576, 1577
*Nset, nset=Set-4, instance=PART-1-1
  181,  182,  183,  184,  185,  186,  187,  188,  189,  838,  839,  840,  841,  842,  843,  844
  845, 1494, 1495, 1496, 1497, 1498, 1499, 1500, 1501, 1502, 1503, 1504, 1505, 1506, 1507, 1508
 1509, 1510, 1511, 1512, 1513, 1514, 1515, 1516, 1517, 1518, 1519, 1520, 1521, 1522, 1523, 1524
 1525, 1526, 1527, 1528, 1529, 1530, 1531, 1532, 1533, 1534, 1535, 1536, 1537, 1538, 1539, 1540
 1541, 1542, 1543, 1544, 1545, 1546, 1547, 1548, 1549, 1550, 1551, 1552, 1553, 1554, 1555, 1556
 1557, 1558, 1559, 1560, 1561, 1562, 1563, 1564, 1565, 1566, 1567, 1568, 1569, 1570, 1571, 1572
 1573, 1574, 1575, 1576, 1577
*Elset, elset=_Surf-1_S1, internal, instance=PART-1-1
 2534, 2535, 2546, 2553, 2557, 2560, 2563, 2566, 2578, 2584, 2600, 2605, 2778, 2819, 2855, 2906
 2944, 2947, 2995, 3628, 3833
*Elset, elset=_Surf-1_S2, internal, instance=PART-1-1
 3660, 3740, 3771, 3817, 3819, 3834, 3875, 3876, 3880, 3936, 3961
*Elset, elset=_Surf-1_S3, internal, instance=PART-1-1
 3599, 3654, 3668, 3874, 3878, 4029
*Elset, elset=_Surf-1_S4, internal, instance=PART-1-1
 3626, 3655, 3677, 3885
*Surface, type=ELEMENT, name=Surf-1
_Surf-1_S1, S1
_Surf-1_S2, S2
_Surf-1_S4, S4
_Surf-1_S3, S3
*Elset, elset=_Surf-2_S1, internal, instance=PART-1-1
 2534, 2535, 2546, 2553, 2557, 2560, 2563, 2566, 2578, 2584, 2600, 2605, 2778, 2819, 2855, 2906
 2944, 2947, 2995, 3628, 3833
*Elset, elset=_Surf-2_S2, internal, instance=PART-1-1
 3660, 3740, 3771, 3817, 3819, 3834, 3875, 3876, 3880, 3936, 3961
*Elset, elset=_Surf-2_S3, internal, instance=PART-1-1
 3599, 3654, 3668, 3874, 3878, 4029
*Elset, elset=_Surf-2_S4, internal, instance=PART-1-1
 3626, 3655, 3677, 3885
*Surface, type=ELEMENT, name=Surf-2
_Surf-2_S1, S1
_Surf-2_S2, S2
_Surf-2_S4, S4
_Surf-2_S3, S3
*Elset, elset=_Surf-3_S1, internal, instance=PART-1-1
 2534, 2535, 2546, 2553, 2557, 2560, 2563, 2566, 2578, 2584, 2600, 2605, 2778, 2819, 2855, 2906
 2944, 2947, 2995, 3628, 3833
*Elset, elset=_Surf-3_S2, internal, instance=PART-1-1
 3660, 3740, 3771, 3817, 3819, 3834, 3875, 3876, 3880, 3936, 3961
*Elset, elset=_Surf-3_S3, internal, instance=PART-1-1
 3599, 3654, 3668, 3874, 3878, 4029
*Elset, elset=_Surf-3_S4, internal, instance=PART-1-1
 3626, 3655, 3677, 3885
*Surface, type=ELEMENT, name=Surf-3
_Surf-3_S1, S1
_Surf-3_S2, S2
_Surf-3_S4, S4
_Surf-3_S3, S3
*End Assembly
** 
** MATERIALS
** 
*Material, name=MATERIAL-1
*Elastic
 2.1e+09, 0.3
** ----------------------------------------------------------------
** 
** STEP: Step-1
** 
*Step, name=Step-1, nlgeom=NO
*Static
1., 1., 1e-05, 1.
** 
** BOUNDARY CONDITIONS
** 
** Name: Disp-BC-1 Type: Symmetry/Antisymmetry/Encastre
*Boundary
SET-2, ENCASTRE
** 
** LOADS
** 
** Name: Load-1   Type: Surface traction
*Dsload
Surf-3, TRSHR, 1., 0., -1., 0.
** 
** OUTPUT REQUESTS
** 
*Restart, write, frequency=0
** 
** FIELD OUTPUT: F-Output-1
** 
*Output, field, variable=PRESELECT
** 
** HISTORY OUTPUT: H-Output-1
** 
*Output, history, variable=PRESELECT
*End Step
