*Heading
** Job name: gongziliang Model name: Model-1
** Generated by: Abaqus/CAE 6.14-4
*Preprint, echo=NO, model=NO, history=NO, contact=NO
**
** PARTS
**
*Part, name=Part-1
*Node
      1,         -40.,         140.,        1800.
      2,          40.,         140.,        1800.
      3,          40.,         140.,           0.
      4,         -40.,         140.,           0.
      5,        -2.75,   130.899994,        1800.
      6,        -2.75,   130.899994,           0.
      7,         -40.,   130.899994,           0.
      8,         -40.,   130.899994,        1800.
      9,          40.,   130.899994,        1800.
     10,         2.75,   130.899994,        1800.
     11,         2.75,   130.899994,           0.
     12,          40.,   130.899994,           0.
     13,          40.,   9.10000038,        1800.
     14,          40.,   9.10000038,           0.
     15,         2.75,   9.10000038,           0.
     16,         2.75,   9.10000038,        1800.
     17,        -2.75,   9.10000038,           0.
     18,        -2.75,   9.10000038,        1800.
     19,         -40.,   9.10000038,        1800.
     20,         -40.,   9.10000038,           0.
** ... 11202 like lines cut
*Element, type=C3D8
   1,    8,  401, 3705,  584,    1,   25, 2273,  398
   2,  401,  400, 3706, 3705,   25,   26, 2274, 2273
   3,  400,  399, 3707, 3706,   26,   27, 2275, 2274
   4,  399,    5,  580, 3707,   27,   28, 2276, 2275
   5,    5,   10,  766,  580,   28,   29, 2277, 2276
   6,   10,  765, 4244,  766,   29,   30, 2278, 2277
   7,  765,  764, 4243, 4244,   30,   31, 2279, 2278
   8,  764,  763, 4242, 4243,   31,   32, 2280, 2279
   9,  763,    9, 1126, 4242,   32,    2,   33, 2280
  10,  584, 3705, 3708,  585,  398, 2273, 2281,  397
  11, 3705, 3706, 3709, 3708, 2273, 2274, 2282, 2281
  12, 3706, 3707, 3710, 3709, 2274, 2275, 2283, 2282
  13, 3707,  580,  579, 3710, 2275, 2276, 2284, 2283
  14,  580,  766,  767,  579, 2276, 2277, 2285, 2284
  15,  766, 4244, 4247,  767, 2277, 2278, 2286, 2285
  16, 4244, 4243, 4246, 4247, 2278, 2279, 2287, 2286
  17, 4243, 4242, 4245, 4246, 2279, 2280, 2288, 2287
  18, 4242, 1126, 1125, 4245, 2280,   33,   34, 2288
  19,  585, 3708, 3711,  586,  397, 2281, 2289,  396
  20, 3708, 3709, 3712, 3711, 2281, 2282, 2290, 2289
** ... 5380 like lines cut
*Nset, nset=Set-1, generate
     1,  11222,      1
*Elset, elset=Set-1, generate
    1,  5400,     1
** Section: Section-1
*Solid Section, elset=Set-1, material=Material-1
,
*End Part
**  
**
** ASSEMBLY
**
*Assembly, name=Assembly
**  
*Instance, name=Part-1-1, part=Part-1
*End Instance
**  
*Nset, nset=Set-2, instance=Part-1-1
  1,  2,  8,  9, 13, 19, 23, 24
*Nset, nset=Set-3, instance=Part-1-1
    3,    4,    6,    7,   11,   12,   14,   15,   17,   20,   21,   22,  212,  213,  214,  215
  216,  217,  218,  219,  581,  582,  583,  945,  946,  947, 1306, 1307, 1308, 1673, 1674, 1675
 2034, 2035, 2036, 2037, 2038, 2039, 2040, 2041, 2240, 2241, 2242, 2243, 2244, 2245, 2246, 2247
 2248, 2249, 2250, 2262, 2263, 2264, 2265, 2266, 2267, 2268, 2269, 2270, 2271, 2272
*Elset, elset=Set-3, instance=Part-1-1
 1612, 1613, 1614, 1615, 1616, 1617, 1618, 1619, 1620, 1800, 1980, 2160, 2340, 2520, 2700, 2880
 3060, 3240, 5389, 5390, 5391, 5392, 5393, 5394, 5395, 5396, 5397, 5398, 5399, 5400
*Nset, nset=Set-4, instance=Part-1-1
    3,    4,    6,    7,   11,   12,   14,   15,   17,   20,   21,   22,  212,  213,  214,  215
  216,  217,  218,  219,  581,  582,  583,  945,  946,  947, 1306, 1307, 1308, 1673, 1674, 1675
 2034, 2035, 2036, 2037, 2038, 2039, 2040, 2041, 2240, 2241, 2242, 2243, 2244, 2245, 2246, 2247
 2248, 2249, 2250, 2262, 2263, 2264, 2265, 2266, 2267, 2268, 2269, 2270, 2271, 2272
*Elset, elset=Set-4, instance=Part-1-1
 1612, 1613, 1614, 1615, 1616, 1617, 1618, 1619, 1620, 1800, 1980, 2160, 2340, 2520, 2700, 2880
 3060, 3240, 5389, 5390, 5391, 5392, 5393, 5394, 5395, 5396, 5397, 5398, 5399, 5400
*End Assembly
** 
** MATERIALS
** 
*Material, name=Material-1
*Elastic
200000., 0.33
** ----------------------------------------------------------------
** 
** STEP: Step-1
** 
*Step, name=Step-1, nlgeom=NO
*Static
1., 1., 1e-05, 1.
** 
** BOUNDARY CONDITIONS
** 
** Name: BC-1 Type: //
*Boundary
Set-4, ENCASTRE
** 
** LOADS
** 
** Name: Load-1   Type: Concentrated force
*Cload
Set-2, 2, -625.
** 
** OUTPUT REQUESTS
** 
*Restart, write, frequency=0
** 
** FIELD OUTPUT: F-Output-1
** 
*Output, field, variable=PRESELECT
** 
** HISTORY OUTPUT: H-Output-1
** 
*Output, history, variable=PRESELECT
*End Step
