*Heading
** Job name: C3D4 Model name: Model-1
** Generated by: Abaqus/CAE 6.14-1
*Preprint, echo=NO, model=NO, history=NO, contact=NO
**
** PARTS
**
*Part, name=Part-1
*Node
      1,          35.,          10.,           7.
      2,          35.,          7.5,           7.
      3,          35.,          7.5,           0.
      4,          35.,          10.,           0.
      5,           0.,           0.,           7.
      6,           0.,           0.,           0.
      7,           0.,          10.,           0.
      8,           0.,          10.,           7.
      9,          35.,   9.16666698,           7.
     10,          35.,   8.33333302,           7.
     11,          35.,          7.5,           6.
     12,          35.,          7.5,           5.
     13,          35.,          7.5,           4.
     14,          35.,          7.5,           3.
     15,          35.,          7.5,           2.
     16,          35.,          7.5,           1.
     17,          35.,   8.33333302,           0.
     18,          35.,   9.16666698,           0.
     19,          35.,          10.,           1.
     20,          35.,          10.,           2.
** ... 2399 like lines cut
*Element, type=C3D4
    1, 1094, 1095, 1096, 1097
    2, 1094, 1098, 1099, 1100
    3, 1094, 1101, 1102, 1099
    4, 1094, 1096, 1095, 1103
    5, 1104, 1102, 1094, 1105
    6, 1102, 1099, 1101, 1106
    7, 1102, 1104, 1100, 1107
    8, 1102, 1107, 1108, 1105
    9, 1102, 1107, 1106, 1108
   10, 1109, 1110, 1111, 1112
   11, 1113, 1075,  727, 1114
   12, 1109, 1095, 1105, 1104
   13, 1109, 1115, 1116, 1105
   14, 1109, 1115, 1117, 1118
   15, 1119, 1118, 1116, 1109
   16, 1120, 1121, 1122, 1123
   17, 1124, 1120, 1122, 1123
   18, 1120, 1125, 1123, 1126
   19, 1127,  874,  151,  632
   20, 1120, 1128, 1129, 1130
** ... 11012 like lines cut
*Nset, nset=Set-1, generate
    1,  2419,     1
*Elset, elset=Set-1, generate
     1,  11032,      1
** Section: Section-1
*Solid Section, elset=Set-1, material=Material-1
,
*End Part
**  
**
** ASSEMBLY
**
*Assembly, name=Assembly
**  
*Instance, name=Part-1-1, part=Part-1
*End Instance
**  
*Nset, nset=Set-1, instance=Part-1-1
    5,    6,    7,    8,   60,   61,   62,   63,   64,   65,  101,  102,  103,  104,  105,  106
  107,  108,  109,  178,  179,  180,  181,  182,  183,  184,  185,  186,  187,  188,  189,  190
  191,  192, 1040, 1041, 1042, 1043, 1044, 1045, 1046, 1047, 1048, 1049, 1050, 1051, 1052, 1053
 1054, 1055, 1056, 1057, 1058, 1059, 1060, 1061, 1062, 1063, 1064, 1065, 1066, 1067, 1068, 1069
 1070, 1071, 1072, 1073, 1074, 1075, 1076, 1077, 1078, 1079, 1080, 1081, 1082, 1083, 1084, 1085
 1086, 1087, 1088, 1089, 1090, 1091, 1092, 1093
*Elset, elset=Set-1, instance=Part-1-1
    40,   207,   360,   400,   669,   692,   769,   800,  1166,  1430,  1457,  1485,  1626,  1642,  1643,  1649
  1678,  2338,  2377,  2405,  2434,  2623,  2626,  2771,  2796,  2937,  2960,  3055,  3315,  3351,  3425,  3446
  3548,  3967,  3977,  3996,  4003,  4006,  4008,  4037,  4057,  4067,  4127,  4315,  4332,  4395,  4536,  4539
  4637,  4644,  4661,  4760,  4775,  4776,  4805,  4809,  4887,  5036,  5389,  5390,  5567,  5745,  6105,  6298
  6400,  6414,  6430,  6731,  6946,  6950,  7014,  7019,  7021,  7094,  7351,  7500,  7502,  7507,  7512,  7514
  7519,  7522,  7525,  7528,  7539,  7540,  7542,  7543,  7545,  7546,  7552,  7553,  7556,  7574,  7579,  7580
  7587,  7588,  7589,  7599,  7604,  7611,  7612,  7615,  7622,  7623,  7627,  7629,  7632,  7635,  7637,  7640
  7644,  7646,  7661,  7664,  7668,  7670,  7672,  7682,  7684,  7690,  7701,  7705,  7709,  7717,  7773,  7928
  8156,  8170,  8182,  8278,  9215,  9311,  9470, 10078, 10215, 10428, 10762, 10783
*Nset, nset=Set-2, instance=Part-1-1
 1,
*Nset, nset=Set-3, instance=Part-1-1
 4,
*End Assembly
** 
** MATERIALS
** 
*Material, name=Material-1
*Density
1.,
*Elastic
2100., 0.3
** ----------------------------------------------------------------
** 
** STEP: Step-1
** 
*Step, name=Step-1, nlgeom=NO
*Static
1., 1., 1e-05, 1.
** 
** BOUNDARY CONDITIONS
** 
** Name: BC-1 Type: Symmetry/Antisymmetry/Encastre
*Boundary
Set-1, ENCASTRE
** 
** LOADS
** 
** Name: Load-1   Type: Concentrated force
*Cload
Set-2, 2, -10.
** Name: Load-2   Type: Concentrated force
*Cload
Set-3, 1, 10.
** 
** OUTPUT REQUESTS
** 
*Restart, write, frequency=0
** 
** FIELD OUTPUT: F-Output-1
** 
*Output, field, variable=PRESELECT
** 
** HISTORY OUTPUT: H-Output-1
** 
*Output, history, variable=PRESELECT
*End Step
