*Heading
** Job name: CPS4 Model name: Model-1
** Generated by: Abaqus/CAE 6.14-1
*Preprint, echo=NO, model=NO, history=NO, contact=NO
**
** PARTS
**
*Part, name=CPS6
*Node
      1,          45.,          10.
      2,           0.,           0.
      3,          45.,          15.
      4,           0.,          15.
      5,       43.125,   9.58333302
      6,        41.25,   9.16666698
      7,       39.375,         8.75
      8,         37.5,   8.33333302
      9,       35.625,   7.91666651
     10,        33.75,          7.5
     11,       31.875,   7.08333349
     12,          30.,   6.66666651
     13,       28.125,         6.25
     14,        26.25,   5.83333349
     15,       24.375,   5.41666651
     16,         22.5,           5.
     17,       20.625,   4.58333349
     18,        18.75,   4.16666651
     19,       16.875,         3.75
     20,          15.,   3.33333325
** ... 149 like lines cut
*Element, type=CPS4
  1,  59,  27,  26,  81
  2,  93,  94,  43,  42
  3,   1,  29,  61,   5
  4,  62, 101, 100,  63
  5,   5,  61,  62,   6
  6,   6,  62,  63,   7
  7,   7,  63,  64,   8
  8,   8,  64,  65,   9
  9,   9,  65,  66,  10
 10,  12,  60,  68,  13
 11,  13,  68,  69,  14
 12,  14,  69,  70,  15
 13,  15,  70,  71,  16
 14,  72,  17,  16,  71
 15,  73,  18,  17,  72
 16,  74,  19,  18,  73
 17,  75,  20,  19,  74
 18,  76,  21,  20,  75
 19,  77,  22,  21,  76
 20,  78,  23,  22,  77
** ... 119 like lines cut
*Nset, nset=Set-1, generate
   1,  169,    1
*Elset, elset=Set-1, generate
   1,  139,    1
** Section: Section-1
*Solid Section, elset=Set-1, material=Material-1
,
*End Part
**  
**
** ASSEMBLY
**
*Assembly, name=Assembly
**  
*Instance, name=CPS6-1, part=CPS6
*End Instance
**  
*Nset, nset=Set-1, instance=CPS6-1
  2,  4, 52, 53, 54, 55, 56, 57, 58
*Elset, elset=Set-1, instance=CPS6-1
 24, 25, 44, 46, 48, 49, 74, 91
*Nset, nset=Set-2, instance=CPS6-1
 3,
*End Assembly
** 
** MATERIALS
** 
*Material, name=Material-1
*Density
1.,
*Elastic
21000., 0.3
** ----------------------------------------------------------------
** 
** STEP: Step-1
** 
*Step, name=Step-1, nlgeom=NO
*Static
1., 1., 1e-05, 1.
** 
** BOUNDARY CONDITIONS
** 
** Name: BC-1 Type: Symmetry/Antisymmetry/Encastre
*Boundary
Set-1, ENCASTRE
** 
** LOADS
** 
** Name: Load-1   Type: Concentrated force
*Cload
Set-2, 1, 10.
Set-2, 2, -10.
** 
** OUTPUT REQUESTS
** 
*Restart, write, frequency=0
** 
** FIELD OUTPUT: F-Output-1
** 
*Output, field, variable=PRESELECT
** 
** HISTORY OUTPUT: H-Output-1
** 
*Output, history, variable=PRESELECT
*End Step
