*Heading
** Job name: CPS6 Model name: Model-1
** Generated by: Abaqus/CAE 6.14-1
*Preprint, echo=NO, model=NO, history=NO, contact=NO
**
** PARTS
**
*Part, name=CPS6
*Node
      1,          45.,          10.
      2,           0.,           0.
      3,          45.,          15.
      4,           0.,          15.
      5,   43.0434799,   9.56521702
      6,    41.086956,   9.13043499
      7,   39.1304359,   8.69565201
      8,    37.173912,   8.26086998
      9,    35.217392,     7.826087
     10,   33.2608681,   7.39130449
     11,    31.304348,   6.95652151
     12,    29.347826,   6.52173901
     13,    27.391304,    6.0869565
     14,    25.434782,     5.652174
     15,     23.47826,   5.21739149
     16,     21.52174,   4.78260851
     17,    19.565218,     4.347826
     18,    17.608696,    3.9130435
     19,    15.652174,   3.47826076
     20,    13.695652,   3.04347825
** ... 572 like lines cut
*Element, type=CPS6
  1,  58,  26,  25, 164, 165, 166
  2, 118,  59,  64, 167, 168, 169
  3,  60,   1,  28, 170, 171, 172
  4, 142, 100,  61, 173, 174, 175
  5,  61,   5,  60, 176, 177, 178
  6,  62,   6,  61, 179, 180, 181
  7,  63,   7,  62, 182, 183, 184
  8, 118,  98,  97, 185, 186, 187
  9,  65,  10,  59, 188, 189, 190
 10,  66,  11,  65, 191, 192, 193
 11,  67,  12,  66, 194, 195, 196
 12,  68,  13,  67, 197, 198, 199
 13,  69,  14,  68, 200, 201, 202
 14,  70,  15,  69, 203, 204, 205
 15,  71,  16,  70, 206, 207, 208
 16,  72,  17,  71, 209, 210, 211
 17,  73,  18,  72, 212, 213, 214
 18,  74,  19,  73, 215, 216, 217
 19,  75,  20,  74, 218, 219, 220
 20,  76,  21,  75, 221, 222, 223
** ... 247 like lines cut
*Nset, nset=Set-1, generate
   1,  592,    1
*Elset, elset=Set-1, generate
   1,  267,    1
** Section: Section-1
*Solid Section, elset=Set-1, material=Material-1
,
*End Part
**  
**
** ASSEMBLY
**
*Assembly, name=Assembly
**  
*Instance, name=CPS6-1, part=CPS6
*End Instance
**  
*Nset, nset=Set-1, instance=CPS6-1
   2,   4,  51,  52,  53,  54,  55,  56,  57, 243, 298, 307, 312, 467, 471, 478
 481,
*Elset, elset=Set-1, instance=CPS6-1
  27,  49,  53,  55, 142, 145, 150, 152
*Nset, nset=Set-2, instance=CPS6-1
 3,
*End Assembly
** 
** MATERIALS
** 
*Material, name=Material-1
*Density
1.,
*Elastic
21000., 0.3
** ----------------------------------------------------------------
** 
** STEP: Step-1
** 
*Step, name=Step-1, nlgeom=NO
*Static
1., 1., 1e-05, 1.
** 
** BOUNDARY CONDITIONS
** 
** Name: BC-1 Type: Symmetry/Antisymmetry/Encastre
*Boundary
Set-1, ENCASTRE
** 
** LOADS
** 
** Name: Load-1   Type: Concentrated force
*Cload
Set-2, 1, 10.
Set-2, 2, -10.
** 
** OUTPUT REQUESTS
** 
*Restart, write, frequency=0
** 
** FIELD OUTPUT: F-Output-1
** 
*Output, field, variable=PRESELECT
** 
** HISTORY OUTPUT: H-Output-1
** 
*Output, history, variable=PRESELECT
*End Step
