*Heading
** Job name: S4R Model name: Model-1
** Generated by: Abaqus/CAE 6.14-1
*Preprint, echo=NO, model=NO, history=NO, contact=NO
**
** PARTS
**
*Part, name=Part-1
*Node
      1,          25.,           5.,          20.
      2,          15.,          10.,          20.
      3,          15.,          10.,           0.
      4,          25.,           5.,           0.
      5,           0.,           0.,          20.
      6,           0.,           0.,           0.
      7,     24.09091,    5.4545455,          20.
      8,    23.181818,     5.909091,          20.
      9,    22.272728,   6.36363649,          20.
     10,    21.363636,   6.81818199,          20.
     11,    20.454546,   7.27272749,          20.
     12,    19.545454,   7.72727251,          20.
     13,    18.636364,   8.18181801,          20.
     14,    17.727272,   8.63636398,          20.
     15,    16.818182,     9.090909,          20.
     16,    15.909091,   9.54545498,          20.
     17,          15.,          10.,          19.
     18,          15.,          10.,          18.
     19,          15.,          10.,          17.
     20,          15.,          10.,          16.
** ... 610 like lines cut
*Element, type=S4R
  1,   1,   7, 118,  64
  2,   7,   8, 119, 118
  3,   8,   9, 120, 119
  4,   9,  10, 121, 120
  5,  10,  11, 122, 121
  6,  11,  12, 123, 122
  7,  12,  13, 124, 123
  8,  13,  14, 125, 124
  9,  14,  15, 126, 125
 10,  15,  16, 127, 126
 11,  16,   2,  17, 127
 12,  64, 118, 128,  63
 13, 118, 119, 129, 128
 14, 119, 120, 130, 129
 15, 120, 121, 131, 130
 16, 121, 122, 132, 131
 17, 122, 123, 133, 132
 18, 123, 124, 134, 133
 19, 124, 125, 135, 134
 20, 125, 126, 136, 135
** ... 560 like lines cut
*Nset, nset=Set-1, generate
   1,  630,    1
*Elset, elset=Set-1, generate
   1,  580,    1
** Section: Section-1
*Shell Section, elset=Set-1, material=Material-1, section integration=GAUSS
1., 2
*End Part
**  
**
** ASSEMBLY
**
*Assembly, name=Assembly
**  
*Instance, name=Part-1-1, part=Part-1
*End Instance
**  
*Nset, nset=Set-1, instance=Part-1-1
  1,  4, 46, 47, 48, 49, 50, 51, 52, 53, 54, 55, 56, 57, 58, 59
 60, 61, 62, 63, 64
*Elset, elset=Set-1, instance=Part-1-1, generate
   1,  210,   11
*Nset, nset=Set-4, instance=Part-1-1
   5,   6,  82,  83,  84,  85,  86,  87,  88,  89,  90,  91,  92,  93,  94,  95
  96,  97,  98,  99, 100
*Elset, elset=Set-4, instance=Part-1-1, generate
 238,  580,   18
*Nset, nset=Set-5, instance=Part-1-1
 1,
*End Assembly
** 
** MATERIALS
** 
*Material, name=Material-1
*Elastic
2100., 0.3
** ----------------------------------------------------------------
** 
** STEP: Step-1
** 
*Step, name=Step-1, nlgeom=NO
*Static
1., 1., 1e-05, 1.
** 
** BOUNDARY CONDITIONS
** 
** Name: BC-1 Type: Symmetry/Antisymmetry/Encastre
*Boundary
Set-4, ENCASTRE
** 
** LOADS
** 
** Name: Load-1   Type: Concentrated force
*Cload
Set-5, 2, -10.
** 
** OUTPUT REQUESTS
** 
*Restart, write, frequency=0
** 
** FIELD OUTPUT: F-Output-1
** 
*Output, field, variable=PRESELECT
** 
** HISTORY OUTPUT: H-Output-1
** 
*Output, history, variable=PRESELECT
*End Step
