*Heading
** Job name: lhl-2 Model name: Model-1
** Generated by: Abaqus/CAE 2020
*Preprint, echo=NO, model=NO, history=NO, contact=NO
**
** PARTS
**
*Part, name=Part-1
*Node
      1,         980.,           0.
      2,         960.,           0.
      3,         930.,           0.
      4,         910.,           0.
      5,         890.,           0.
      6,         870.,           0.
      7,         850.,           0.
      8,         830.,           0.
      9,         800.,           0.
     10,         780.,           0.
     11,         760.,           0.
     12,         740.,           0.
     13,         720.,           0.
     14,         700.,           0.
     15,         670.,           0.
     16,         650.,           0.
     17,         630.,           0.
     18,         610.,           0.
     19,         590.,           0.
     20,         570.,           0.
** ... 3524 like lines cut
*Element, type=CPS4R
   1,  803, 1084, 1006,  789
   2,  730,  729,  802,  803
   3,  805,  732,  731,  804
   4,  808,  735,  734,  807
   5,  810,  737,  736,  809
   6,  813,  740,  739,  812
   7,  815,  742,  741,  814
   8,  818,  745,  744,  817
   9,  821,  748,  747,  820
  10,  823,  750,  749,  822
  11,  826,  753,  752,  825
  12,  828,  755,  754,  827
  13,  831,  758,  757,  830
  14,  833,  760,  759,  832
  15,   97,  763,  836,   62
  16,  835,  834, 1007, 1909
  17,  879,   45,  646,  976
  18, 1085,  879,  976, 1117
  19, 1268, 1224, 1185, 3154
  20, 3239, 1410, 3167, 1312
** ... 3383 like lines cut
*Nset, nset=Set-1, generate
    1,  3544,     1
*Elset, elset=Set-1, generate
    1,  3403,     1
** Section: Section-1
*Solid Section, elset=Set-1, material=Material-1
,
*End Part
**  
**
** ASSEMBLY
**
*Assembly, name=Assembly
**  
*Instance, name=Part-1-1, part=Part-1
*End Instance
**  
*Instance, name=Part-1-2, part=Part-1
*End Instance
**  
*Nset, nset=Set-1, instance=Part-1-2
  47,  97,  98,  99, 100, 101, 102, 103, 104, 105, 106, 107, 108, 109, 110, 728
 729, 730, 731, 732, 733, 734, 735, 736, 737, 738, 739, 740, 741, 742, 743, 744
 745, 746, 747, 748, 749, 750, 751, 752, 753, 754, 755, 756, 757, 758, 759, 760
 761, 762, 763
*Elset, elset=Set-1, instance=Part-1-2
    2,    3,    4,    5,    6,    7,    8,    9,   10,   11,   12,   13,   14,   15, 1093, 1095
 1097, 1098, 1100, 1102, 1103, 1104, 1106, 1107, 1108, 1109, 1111, 1113, 1114, 1116, 1118, 1119
 1120, 1122, 1123, 1124, 1153, 1154, 1155, 1156, 1157, 1158, 1160, 1161, 1162, 1163, 1164, 1165
 1167, 3263
*Nset, nset=Set-2, instance=Part-1-2
 51,
*Elset, elset=_Surf-1_S1, internal, instance=Part-1-2
  533,  534,  536,  538,  558,  559,  560,  569,  570,  575,  576,  608,  773, 1045, 1068, 1069
 1070, 1073, 1074, 1075, 1080, 1081, 1082, 1083, 1084, 1085, 1086, 1087, 1185, 1198
*Elset, elset=_Surf-1_S3, internal, instance=Part-1-2
  537,  546,  547,  549,  557,  568,  584,  585, 1066, 1071, 1072, 1076, 1077, 1078, 1079, 1180
 1183, 1196, 1199
*Elset, elset=_Surf-1_S4, internal, instance=Part-1-2
 1065,
*Surface, type=ELEMENT, name=Surf-1
_Surf-1_S1, S1
_Surf-1_S3, S3
_Surf-1_S4, S4
*End Assembly
** 
** MATERIALS
** 
*Material, name=Material-1
*Elastic
 2.1e+11, 0.3
** ----------------------------------------------------------------
** 
** STEP: Step-1
** 
*Step, name=Step-1, nlgeom=YES, inc=1000
*Static
1., 1., 1e-05, 1.
** 
** BOUNDARY CONDITIONS
** 
** Name: BC-1 Type: Displacement/Rotation
*Boundary
Set-1, 1, 1
Set-1, 2, 2
** 
** LOADS
** 
** Name: Load-1   Type: Concentrated force
*Cload
Set-2, 2, -100000.
** 
** OUTPUT REQUESTS
** 
*Restart, write, frequency=0
** 
** FIELD OUTPUT: F-Output-1
** 
*Output, field, variable=PRESELECT
** 
** HISTORY OUTPUT: H-Output-1
** 
*Output, history, variable=PRESELECT
*End Step
