*Heading
** Job name: Job-3 Model name: Model-1
** Generated by: Abaqus/CAE 2021
*Preprint, echo=NO, model=NO, history=NO, contact=NO
**
** PARTS
**
*Part, name=Part1
*Node
      1,         500.,   48.8470726,   82.9597015
      2,         500.,   48.8470726,  -17.0408058
      3,         500.,   85.8470764,  -17.0408058
      4,         500.,   85.0104752,  -14.7706242
      5,         500.,   82.9011765,  -13.5855122
      6,         500.,   59.2388687,  -9.79156208
      7,         500.,   55.0199051,   -7.4209075
      8,         500.,   53.3470726,  -2.87984204
      9,         500.,   53.3470726,    68.798233
     10,         500.,   55.0199051,   73.3392944
     11,         500.,   59.2388687,   75.7099533
     12,         500.,   82.9011765,   79.5038986
     13,         500.,   85.0106354,   80.6892014
     14,         500.,   85.8470764,   82.9597015
     15,         500.,   48.8470726,    77.959671
     16,         500.,   48.8470726,   72.9596481
     17,         500.,   48.8470726,   67.9596252
     18,         500.,   48.8470726,   62.9595985
     19,         500.,   48.8470726,   57.9595718
     20,         500.,   48.8470726,    52.959549
** ... 7252 like lines cut
*Element, type=C3D8R
   1,    7,   32,   31,    8,   79,  104,  103,   80
   2,    7,   71,   33,   32,   79,  143,  105,  104
   3,   70,   36,   35,   67,  142,  108,  107,  139
   4,    5,    4,    3,   39,   77,   76,   75,  111
   5,   15,   72,   10,   16,   87,  144,   82,   88
   6,   17,   16,   10,    9,   89,   88,   82,   81
   7,   11,   10,   72,   68,   83,   82,  144,  140
   8,   62,   68,   72,   61,  134,  140,  144,  133
   9,   62,   63,   69,   68,  134,  135,  141,  140
  10,   57,   69,   63,   58,  129,  141,  135,  130
  11,   12,   66,   14,   13,   84,  138,   86,   85
  12,    9,   56,   18,   17,   81,  128,   90,   89
  13,   20,   19,   55,   54,   92,   91,  127,  126
  14,   54,   53,   21,   20,  126,  125,   93,   92
  15,   23,   22,   52,   51,   95,   94,  124,  123
  16,   24,   23,   51,   50,   96,   95,  123,  122
  17,   24,   50,   49,   25,   96,  122,  121,   97
  18,   47,   27,   26,   48,  119,   99,   98,  120
  19,   46,   28,   27,   47,  118,  100,   99,  119
  20,   45,   29,   28,   46,  117,  101,  100,  118
** ... 3780 like lines cut
*Nset, nset=Set-1, generate
    1,  7272,     1
*Elset, elset=Set-1, generate
    1,  3800,     1
** Section: Section-1
*Solid Section, elset=Set-1, material=Material-1
,
*End Part
**  
**
** ASSEMBLY
**
*Assembly, name=Assembly
**  
*Instance, name=Part1-1, part=Part1
*End Instance
**  
*Nset, nset=Set-1, instance=Part1-1, generate
 7201,  7272,     1
*Elset, elset=Set-1, instance=Part1-1, generate
 3763,  3800,     1
*Nset, nset=Set-2, instance=Part1-1
 2,
*Nset, nset=Set-3, instance=Part1-1
 2, 3
*Nset, nset=Set-4, instance=Part1-1
 1, 2
*End Assembly
** 
** MATERIALS
** 
*Material, name=Material-1
*Elastic
200000., 0.3
** 
** BOUNDARY CONDITIONS
** 
** Name: BC-1 Type: /
*Boundary
Set-1, 1, 1
Set-1, 2, 2
Set-1, 3, 3
** ----------------------------------------------------------------
** 
** STEP: Step-1
** 
*Step, name=Step-1, nlgeom=NO, inc=100000
*Static
0.05, 1., 1e-05, 1.
** 
** LOADS
** 
** Name: Load-1   Type: Concentrated force
*Cload
Set-4, 2, 125.
** 
** OUTPUT REQUESTS
** 
*Restart, write, frequency=0
** 
** FIELD OUTPUT: F-Output-1
** 
*Output, field, variable=PRESELECT
** 
** HISTORY OUTPUT: H-Output-1
** 
*Output, history
*Energy Output
ALLIE, ALLKE, ETOTAL
*End Step
