 Abaqus/Standard 2021                  DATE 22-2ÔÂ-2024 TIME 22:03:32
 SUMMARY OF JOB INFORMATION:
 STEP  INC ATT SEVERE EQUIL TOTAL  TOTAL      STEP       INC OF       DOF    IF
               DISCON ITERS ITERS  TIME/    TIME/LPF    TIME/LPF    MONITOR RIKS
               ITERS               FREQ
   1     1   1     0     1     1  0.0500     0.0500     0.05000   
   1     2   1     0     1     1  0.100      0.100      0.05000   
   1     3   1     0     1     1  0.175      0.175      0.07500   
   1     4   1     0     1     1  0.288      0.288      0.1125    
   1     5   1     0     1     1  0.456      0.456      0.1688    
   1     6   1     0     1     1  0.709      0.709      0.2531    
   1     7   1     0     1     1  1.00       1.00       0.2906    
                          
 THE ANALYSIS HAS COMPLETED SUCCESSFULLY
