*Heading
** Job name: Job-1 Model name: Model-1
** Generated by: Abaqus/CAE 2022
*Preprint, echo=NO, model=NO, history=NO, contact=NO
**
** PARTS
**
*Part, name=Part-1
*Node
      1,          10.,           2.,          50.
      2,          10.,           0.,          50.
      3,          10.,           0.,           0.
      4,          10.,           2.,           0.
      5,           0.,           0.,          50.
      6,           0.,           0.,           0.
      7,           0.,           2.,           0.
      8,           0.,           2.,          50.
      9,          10.,           1.,          50.
     10,          10.,           0.,          49.
     11,          10.,           0.,          48.
     12,          10.,           0.,          47.
     13,          10.,           0.,          46.
     14,          10.,           0.,          45.
     15,          10.,           0.,          44.
     16,          10.,           0.,          43.
     17,          10.,           0.,          42.
     18,          10.,           0.,          41.
     19,          10.,           0.,          40.
     20,          10.,           0.,          39.
** ... 2031 like lines cut
*Element, type=C3D4
   1,  714, 1243,  715, 1244
   2, 1243,  714, 1245, 1246
   3, 1246, 1247, 1244, 1248
   4,  713, 1152,  704,  703
   5, 1244, 1243,  715, 1249
   6, 1250, 1251, 1160, 1246
   7, 1248, 1252, 1150, 1253
   8, 1254, 1255,  454, 1256
   9, 1257, 1254,  454, 1256
  10,  455, 1257, 1254,  454
  11, 1256,  463, 1255,  454
  12, 1256, 1257,  906, 1258
  13, 1256,  906, 1257,  897
  14, 1256,  897, 1257, 1254
  15, 1259,  764, 1260, 1261
  16, 1259, 1260,  764,  773
  17, 1262, 1260, 1259,  773
  18, 1263,  428, 1264, 1265
  19, 1263, 1266, 1267, 1264
  20, 1263, 1268,  436, 1269
** ... 8260 like lines cut
*Nset, nset=Set-1, generate
    1,  2051,     1
*Elset, elset=Set-1, generate
    1,  8280,     1
** Section: Section-1
*Solid Section, elset=Set-1, material=SI_mm111111_45
,
*End Part
**  
**
** ASSEMBLY
**
*Assembly, name=Assembly
**  
*Instance, name=Part-1-1, part=Part-1
*End Instance
**  
*Nset, nset=Cast, instance=Part-1-1
   3,   4,   6,   7,  59, 167, 168, 169, 170, 171, 172, 173, 174, 175, 176, 177
 178, 179, 180, 181, 182, 183, 184, 185, 735, 736, 737, 738, 739, 740, 741, 742
 743,
*Nset, nset=Load, instance=Part-1-1
    1,    2,    5,    8,    9,  109,  110,  111,  112,  113,  114,  115,  116,  117,  186,  187
  188,  189,  190,  191,  192,  193,  194,  244, 1185, 1186, 1187, 1188, 1189, 1190, 1191, 1192
 1193,
*End Assembly
** 
** MATERIALS
** 
*Material, name=SI_mm111111_45
*Elastic
210000., 0.33
** 
** BOUNDARY CONDITIONS
** 
** Name: BC-1 Type: Displacement/Rotation
*Boundary
Cast, 1, 1
Cast, 2, 2
Cast, 3, 3
** ----------------------------------------------------------------
** 
** STEP: Step-1
** 
*Step, name=Step-1, nlgeom=NO
*Static
1., 1., 1e-05, 1.
** 
** LOADS
** 
** Name: Load-1   Type: Concentrated force
*Cload
Load, 2, 0.5
** 
** OUTPUT REQUESTS
** 
*Restart, write, frequency=0
** 
** FIELD OUTPUT: F-Output-1
** 
*Output, field, variable=PRESELECT
** 
** HISTORY OUTPUT: H-Output-1
** 
*Output, history, variable=PRESELECT
*End Step
