*Heading
** Job name: inp6_1 Model name: Model-1
** Generated by: Abaqus/CAE 2017
*Preprint, echo=NO, model=NO, history=NO, contact=NO
**
** PARTS
**
*Part, name=Part-1
*Node
      1,          50.,          20.,          40.
      2,         100.,          20.,          40.
      3,         100.,          20.,           0.
      4,          50.,          20.,           0.
      5,         100.,           0.,          40.
      6,         100.,           0.,           0.
      7,          50.,           0.,           0.
      8,          50.,           0.,          40.
      9,           0.,          40.,          40.
     10,          50.,          40.,          40.
     11,          50.,          40.,           0.
     12,           0.,          40.,           0.
     13,           0.,           0.,           0.
     14,           0.,           0.,          40.
     15,          55.,          20.,          40.
     16,          60.,          20.,          40.
     17,          65.,          20.,          40.
     18,          70.,          20.,          40.
     19,          75.,          20.,          40.
     20,          80.,          20.,          40.
** ... 1321 like lines cut
*Element, type=C3D8
  1,  82, 336, 712, 294,   1,  15, 168,  46
  2, 336, 337, 713, 712,  15,  16, 169, 168
  3, 337, 338, 714, 713,  16,  17, 170, 169
  4, 338, 339, 715, 714,  17,  18, 171, 170
  5, 339, 340, 716, 715,  18,  19, 172, 171
  6, 340, 341, 717, 716,  19,  20, 173, 172
  7, 341, 342, 718, 717,  20,  21, 174, 173
  8, 342, 343, 719, 718,  21,  22, 175, 174
  9, 343, 344, 720, 719,  22,  23, 176, 175
 10, 344,  88, 315, 720,  23,   2,  24, 176
 11, 294, 712, 721, 295,  46, 168, 177,  45
 12, 712, 713, 722, 721, 168, 169, 178, 177
 13, 713, 714, 723, 722, 169, 170, 179, 178
 14, 714, 715, 724, 723, 170, 171, 180, 179
 15, 715, 716, 725, 724, 171, 172, 181, 180
 16, 716, 717, 726, 725, 172, 173, 182, 181
 17, 717, 718, 727, 726, 173, 174, 183, 182
 18, 718, 719, 728, 727, 174, 175, 184, 183
 19, 719, 720, 729, 728, 175, 176, 185, 184
 20, 720, 315, 316, 729, 176,  24,  25, 185
** ... 940 like lines cut
*Nset, nset=Set-1, generate
    1,  1341,     1
*Elset, elset=Set-1, generate
   1,  960,    1
*Nset, nset=FORCE
  5,  6, 56, 57, 58, 59, 60, 61, 62
** Section: Section-1
*Solid Section, elset=Set-1, material=Material-1
,
*End Part
**  
**
** ASSEMBLY
**
*Assembly, name=Assembly
**  
*Instance, name=Part-1-1, part=Part-1
*End Instance
**  
*Nset, nset=Set-1, instance=Part-1-1
   9,  12,  13,  14, 116, 117, 118, 119, 120, 121, 122, 141, 142, 143, 144, 145
 146, 147, 148, 149, 150, 151, 152, 153, 154, 155, 156, 157, 158, 159, 160, 161
 516, 517, 518, 519, 520, 521, 522, 523, 524, 525, 526, 527, 528, 529, 530, 531
 532, 533, 534, 535, 536, 537, 538, 539, 540, 541, 542, 543, 544, 545, 546, 547
 548, 549, 550, 551, 552, 553, 554, 555, 556, 557, 558, 559, 560, 561, 562, 563
 564,
*Elset, elset=Set-1, instance=Part-1-1, generate
 321,  951,   10
*End Assembly
** 
** MATERIALS
** 
*Material, name=Material-1
*Elastic
210000., 0.3
** 
** BOUNDARY CONDITIONS
** 
** Name: BC-1 Type: Displacement/Rotation
*Boundary
Set-1, 1, 1
Set-1, 2, 2
Set-1, 3, 3
** ----------------------------------------------------------------
** 
** STEP: Step-1
** 
*Step, name=Step-1, nlgeom=NO
*Static
1., 1., 1e-05, 1.
** 
** LOADS
** 
** Name: Load-1   Type: Concentrated force
*Cload
Part-1-1.FORCE, 2, -100.
** 
** OUTPUT REQUESTS
** 
*Restart, write, frequency=0
** 
** FIELD OUTPUT: F-Output-1
** 
*Output, field, variable=PRESELECT
** 
** HISTORY OUTPUT: H-Output-1
** 
*Output, history, variable=PRESELECT
*End Step
