1

   Abaqus 6.14-4                                  Date 10-1ÔÂ-2024   Time 15:08:59
   For use by Supplied by Team-SolidSQUAD under license from Dassault Systemes or its subsidiary.

                                                                                 
                                                                                 
 STEP    1     INCREMENT     1     STEP TIME    0.00    


                        S T E P       1     C A L C U L A T I O N   O F   E I G E N V A L U E S

                                            F O R   B U C K L I N G   P R E D I C T I O N



                                                                                          

     THE SUBSPACE ITERATION METHOD IS USED FOR THIS ANALYSIS
     NUMBER OF EIGENVALUES                     10
     MAXIMUM NUMBER OF ITERATIONS                     50
     NUMBER OF VECTORS IN ITERATION                   18
     THE BUCKLING MODE CONSTRAINTS 
      ARE DEFINED AS LOAD CASE 2
                              ONLY INITIAL STRESS EFFECTS ARE INCLUDED IN THE
                              STIFFNESS MATRIX

     THIS IS A LINEAR PERTURBATION STEP.
     ALL LOADS ARE DEFINED AS CHANGE IN LOAD TO THE REFERENCE STATE

     EXTRAPOLATION WILL NOT BE USED

     CHARACTERISTIC ELEMENT LENGTH      2.49    

     DETAILS REGARDING ACTUAL SOLUTION WAVEFRONT REQUESTED

     DETAILED OUTPUT OF DIAGNOSTICS TO DATABASE REQUESTED

     PRINT OF INCREMENT NUMBER, TIME, ETC., TO THE MESSAGE FILE EVERY     1  INCREMENTS

  NUMBER OF EQUATIONS =    11652     NUMBER OF FLOATING PT. OPERATIONS =  5.04E+08

     CHECK POINT   START OF SOLVER    

     CHECK POINT  END OF SOLVER       

       ELAPSED USER TIME (SEC)      =   0.0000    
       ELAPSED SYSTEM TIME (SEC)    =   0.0000    
       ELAPSED TOTAL CPU TIME (SEC) =   0.0000    
       ELAPSED WALLCLOCK TIME (SEC) =          0
 
     ITERATION 1
      1       5.894007e+005    
      2       6.325186e+005    
      3       7.156672e+005    
      4       7.333176e+005    
      5       8.853152e+005    
      6       8.977872e+005    
      7       9.453987e+005    
      8       1.001830e+006    
      9       1.028250e+006    
      10      1.046878e+006    
      11      1.112870e+006    
      12      1.144362e+006    
      13      1.164805e+006    
      14      1.216906e+006    
      15      1.242787e+006    
      16      1.320271e+006    
      17      6.302939e+006    
      18      1.101314e+007    
 
     NUMBER OF EIGENVALUES CONVERGED UPTO THIS ITERATION = 0
 
     ITERATION 2
      1       3.222523e+005    
      2       3.398852e+005    
      3       3.563659e+005    
      4       3.844480e+005    
      5       3.908696e+005    
      6       4.332782e+005    
      7       4.687458e+005    
      8       5.226503e+005    
      9       5.320825e+005    
      10      5.678535e+005    
      11      6.016238e+005    
      12      6.264205e+005    
      13      6.996816e+005    
      14      7.117656e+005    
      15      7.744471e+005    
      16      8.241011e+005    
      17      8.367700e+005    
      18      8.547177e+005    
 
     NUMBER OF EIGENVALUES CONVERGED UPTO THIS ITERATION = 0
 
     ITERATION 3
      1       3.136075e+005    
      2       3.172779e+005    
      3       3.285028e+005    
      4       3.340386e+005    
      5       3.367024e+005    
      6       3.547284e+005    
      7       3.737603e+005    
      8       3.859367e+005    
      9       4.037904e+005    
      10      4.289582e+005    
      11      4.511279e+005    
      12      4.737666e+005    
      13      5.255028e+005    
      14      5.904854e+005    
      15      6.114575e+005    
      16      7.242208e+005    
      17      7.373286e+005    
      18      7.477175e+005    
 
     NUMBER OF EIGENVALUES CONVERGED UPTO THIS ITERATION = 0
 
     ITERATION 4
      1       3.127849e+005    
      2       3.137619e+005    
      3       3.168514e+005    
      4       3.228731e+005    
      5       3.269607e+005    
      6       3.357477e+005    
      7       3.448479e+005    
      8       3.541651e+005    
      9       3.651198e+005    
      10      3.793978e+005    
      11      4.064240e+005    
      12      4.292357e+005    
      13      4.594944e+005    
      14      5.153125e+005    
      15      5.409675e+005    
      16      6.678817e+005    
      17      6.836522e+005    
      18      7.100871e+005    
 
     NUMBER OF EIGENVALUES CONVERGED UPTO THIS ITERATION = 0
 
     ITERATION 5
      1       3.120297e+005    
      2       3.126999e+005    
      3       3.129125e+005    
      4       3.199627e+005    
      5       3.236400e+005    
      6       3.311000e+005    
      7       3.357379e+005    
      8       3.482090e+005    
      9       3.518931e+005    
      10      3.705461e+005    
      11      3.924028e+005    
      12      4.119970e+005    
      13      4.337593e+005    
      14      4.680336e+005    
      15      5.154288e+005    
      16      6.214148e+005    
      17      6.439577e+005    
      18      6.870478e+005    
 
     NUMBER OF EIGENVALUES CONVERGED UPTO THIS ITERATION = 0
 
     ITERATION 6
      1       3.108880e+005    
      2       3.126162e+005    
      3       3.126735e+005    
      4       3.191554e+005    
      5       3.219506e+005    
      6       3.300556e+005    
      7       3.327732e+005    
      8       3.463355e+005    
      9       3.483798e+005    
      10      3.684557e+005    
      11      3.847065e+005    
      12      4.042968e+005    
      13      4.214176e+005    
      14      4.490744e+005    
      15      5.017342e+005    
      16      5.787603e+005    
      17      6.035242e+005    
      18      6.697091e+005    
 
     NUMBER OF EIGENVALUES CONVERGED UPTO THIS ITERATION = 0
 
     ITERATION 7
      1       3.106234e+005    
      2       3.126038e+005    
      3       3.126173e+005    
      4       3.189476e+005    
      5       3.208062e+005    
      6       3.297881e+005    
      7       3.313898e+005    
      8       3.457650e+005    
      9       3.470992e+005    
      10      3.678323e+005    
      11      3.793493e+005    
      12      4.005490e+005    
      13      4.142688e+005    
      14      4.417524e+005    
      15      4.936869e+005    
      16      5.399472e+005    
      17      5.623362e+005    
      18      6.545353e+005    
 
     NUMBER OF EIGENVALUES CONVERGED UPTO THIS ITERATION = 0
 
     ITERATION 8
      1       3.105629e+005    
      2       3.125999e+005    
      3       3.126035e+005    
      4       3.188940e+005    
      5       3.199526e+005    
      6       3.297168e+005    
      7       3.305914e+005    
      8       3.456045e+005    
      9       3.464221e+005    
      10      3.676229e+005    
      11      3.753054e+005    
      12      3.986494e+005    
      13      4.090927e+005    
      14      4.387177e+005    
      15      4.857185e+005    
      16      5.068146e+005    
      17      5.312128e+005    
      18      6.404102e+005    
 
     NUMBER OF EIGENVALUES CONVERGED UPTO THIS ITERATION = 0
 
     ITERATION 9
      1       3.105476e+005    
      2       3.125984e+005    
      3       3.125996e+005    
      4       3.188800e+005    
      5       3.193815e+005    
      6       3.296976e+005    
      7       3.301172e+005    
      8       3.455599e+005    
      9       3.460041e+005    
      10      3.675488e+005    
      11      3.721724e+005    
      12      3.977155e+005    
      13      4.047676e+005    
      14      4.373647e+005    
      15      4.681834e+005    
      16      4.936680e+005    
      17      5.126013e+005    
      18      6.271540e+005    
 
     NUMBER OF EIGENVALUES CONVERGED UPTO THIS ITERATION = 0
 
     ITERATION 10
      1       3.105431e+005    
      2       3.125978e+005    
      3       3.125983e+005    
      4       3.188764e+005    
      5       3.190748e+005    
      6       3.296924e+005    
      7       3.298669e+005    
      8       3.455475e+005    
      9       3.457568e+005    
      10      3.675227e+005    
      11      3.699622e+005    
      12      3.972880e+005    
      13      4.014208e+005    
      14      4.367284e+005    
      15      4.532209e+005    
      16      4.906699e+005    
      17      5.018611e+005    
      18      6.148846e+005    
 
     NUMBER OF EIGENVALUES CONVERGED UPTO THIS ITERATION = 0
 
     ITERATION 11
      1       3.105417e+005    
      2       3.125977e+005    
      3       3.125978e+005    
      4       3.188754e+005    
      5       3.189443e+005    
      6       3.296910e+005    
      7       3.297558e+005    
      8       3.455440e+005    
      9       3.456313e+005    
      10      3.675139e+005    
      11      3.686611e+005    
      12      3.971061e+005    
      13      3.992758e+005    
      14      4.364173e+005    
      15      4.450557e+005    
      16      4.894402e+005    
      17      4.957562e+005    
      18      6.038142e+005    
 
     NUMBER OF EIGENVALUES CONVERGED UPTO THIS ITERATION = 1
 
     ITERATION 12
      1       3.105413e+005    
      2       3.125977e+005    
      3       3.125977e+005    
      4       3.188752e+005    
      5       3.188974e+005    
      6       3.296907e+005    
      7       3.297131e+005    
      8       3.455431e+005    
      9       3.455767e+005    
      10      3.675109e+005    
      11      3.680123e+005    
      12      3.970328e+005    
      13      3.981006e+005    
      14      4.362612e+005    
      15      4.408463e+005    
      16      4.888120e+005    
      17      4.923297e+005    
      18      5.941409e+005    
 
     NUMBER OF EIGENVALUES CONVERGED UPTO THIS ITERATION = 3
 
     ITERATION 13
      1       3.105412e+005    
      2       3.125976e+005    
      3       3.125977e+005    
      4       3.188751e+005    
      5       3.188821e+005    
      6       3.296906e+005    
      7       3.296981e+005    
      8       3.455428e+005    
      9       3.455553e+005    
      10      3.675100e+005    
      11      3.677212e+005    
      12      3.970044e+005    
      13      3.975136e+005    
      14      4.361815e+005    
      15      4.386580e+005    
      16      4.884677e+005    
      17      4.904197e+005    
      18      5.859716e+005    
 
     NUMBER OF EIGENVALUES CONVERGED UPTO THIS ITERATION = 6
 
     ITERATION 14
      1       3.105411e+005    
      2       3.125976e+005    
      3       3.125976e+005    
      4       3.188751e+005    
      5       3.188773e+005    
      6       3.296905e+005    
      7       3.296931e+005    
      8       3.455427e+005    
      9       3.455473e+005    
      10      3.675097e+005    
      11      3.675974e+005    
      12      3.969936e+005    
      13      3.972337e+005    
      14      4.361407e+005    
      15      4.375008e+005    
      16      4.882738e+005    
      17      4.893578e+005    
      18      5.792921e+005    
 
     NUMBER OF EIGENVALUES CONVERGED UPTO THIS ITERATION = 7
 
     ITERATION 15
      1       3.105411e+005    
      2       3.125976e+005    
      3       3.125976e+005    
      4       3.188751e+005    
      5       3.188758e+005    
      6       3.296905e+005    
      7       3.296914e+005    
      8       3.455427e+005    
      9       3.455444e+005    
      10      3.675096e+005    
      11      3.675460e+005    
      12      3.969895e+005    
      13      3.971028e+005    
      14      4.361198e+005    
      15      4.368788e+005    
      16      4.881634e+005    
      17      4.887671e+005    
      18      5.739826e+005    
 
     NUMBER OF EIGENVALUES CONVERGED UPTO THIS ITERATION = 7
 
     ITERATION 16
      1       3.105411e+005    
      2       3.125976e+005    
      3       3.125976e+005    
      4       3.188751e+005    
      5       3.188753e+005    
      6       3.296905e+005    
      7       3.296908e+005    
      8       3.455427e+005    
      9       3.455433e+005    
      10      3.675095e+005    
      11      3.675247e+005    
      12      3.969880e+005    
      13      3.970418e+005    
      14      4.361092e+005    
      15      4.365393e+005    
      16      4.881004e+005    
      17      4.884380e+005    
      18      5.698589e+005    
 
     NUMBER OF EIGENVALUES CONVERGED UPTO THIS ITERATION = 7
 
     ITERATION 17
      1       3.105411e+005    
      2       3.125976e+005    
      3       3.125976e+005    
      4       3.188751e+005    
      5       3.188752e+005    
      6       3.296905e+005    
      7       3.296906e+005    
      8       3.455427e+005    
      9       3.455429e+005    
      10      3.675095e+005    
      11      3.675159e+005    
      12      3.969874e+005    
      13      3.970132e+005    
      14      4.361039e+005    
      15      4.363512e+005    
      16      4.880644e+005    
      17      4.882542e+005    
      18      5.667132e+005    
 
     NUMBER OF EIGENVALUES CONVERGED UPTO THIS ITERATION = 9
 
     ITERATION 18
      1       3.105411e+005    
      2       3.125976e+005    
      3       3.125976e+005    
      4       3.188751e+005    
      5       3.188751e+005    
      6       3.296905e+005    
      7       3.296906e+005    
      8       3.455427e+005    
      9       3.455428e+005    
      10      3.675095e+005    
      11      3.675122e+005    
      12      3.969872e+005    
      13      3.969997e+005    
      14      4.361013e+005    
      15      4.362453e+005    
      16      4.880439e+005    
      17      4.881512e+005    
      18      5.643457e+005    
 
     NUMBER OF EIGENVALUES CONVERGED UPTO THIS ITERATION = 10


          THE ANALYSIS HAS BEEN COMPLETED



     ANALYSIS SUMMARY:
     TOTAL OF          1  INCREMENTS
                       0  CUTBACKS IN AUTOMATIC INCREMENTATION
                       1  ITERATIONS INCLUDING CONTACT ITERATIONS IF PRESENT
                       1  PASSES THROUGH THE EQUATION SOLVER OF WHICH 
                       1  INVOLVE MATRIX DECOMPOSITION, INCLUDING
                       0  DECOMPOSITION(S) OF THE MASS MATRIX
                       1  REORDERING OF EQUATIONS TO MINIMIZE WAVEFRONT
                       0  ADDITIONAL RESIDUAL EVALUATIONS FOR LINE SEARCHES
                       0  ADDITIONAL OPERATOR EVALUATIONS FOR LINE SEARCHES
                       3  WARNING MESSAGES DURING USER INPUT PROCESSING
                       0  WARNING MESSAGES DURING ANALYSIS
                       0  ANALYSIS WARNINGS ARE NUMERICAL PROBLEM MESSAGES
                       0  ANALYSIS WARNINGS ARE NEGATIVE EIGENVALUE MESSAGES
                       0  ERROR MESSAGES



     JOB TIME SUMMARY
       USER TIME (SEC)      =  0.20000    
       SYSTEM TIME (SEC)    =   0.0000    
       TOTAL CPU TIME (SEC) =  0.20000    
       WALLCLOCK TIME (SEC) =          2
