*Heading
** Job name: Job-1 Model name: Model-1
** Generated by: Abaqus/CAE 6.14-4
*Preprint, echo=NO, model=NO, history=NO, contact=NO
**
** PARTS
**
*Part, name=Part-1
*End Part
**  
*Part, name=Part-2
*End Part
**  
*Part, name=Part-3
*End Part
**  
**
** ASSEMBLY
**
*Assembly, name=Assembly
**  
*Instance, name=Part-1-1, part=Part-1
*Node
      1,   13.8276367,  -2.19008255,         100.
      2,   13.3147917,  -4.32623816,         100.
      3,   12.4740915,  -6.35586691,         100.
      4,   11.3262377,  -8.22899342,         100.
      5,   9.89949512,  -9.89949512,         100.
      6,   8.22899342,  -11.3262377,         100.
      7,   6.35586691,  -12.4740915,         100.
      8,   4.32623816,  -13.3147917,         100.
      9,   2.19008255,  -13.8276367,         100.
     10,           0.,         -14.,         100.
     11,  -2.19008255,  -13.8276367,         100.
     12,  -4.32623816,  -13.3147917,         100.
     13,  -6.35586691,  -12.4740915,         100.
     14,  -8.22899342,  -11.3262377,         100.
     15,  -9.89949512,  -9.89949512,         100.
     16,  -11.3262377,  -8.22899342,         100.
     17,  -12.4740915,  -6.35586691,         100.
     18,  -13.3147917,  -4.32623816,         100.
     19,  -13.8276367,  -2.19008255,         100.
     20,         -14.,           0.,         100.
** ... 1820 like lines cut
*Element, type=S4R
   1,   40,    1,   41,   80
   2,    1,    2,   42,   41
   3,    2,    3,   43,   42
   4,    3,    4,   44,   43
   5,    4,    5,   45,   44
   6,    5,    6,   46,   45
   7,    6,    7,   47,   46
   8,    7,    8,   48,   47
   9,    8,    9,   49,   48
  10,    9,   10,   50,   49
  11,   10,   11,   51,   50
  12,   11,   12,   52,   51
  13,   12,   13,   53,   52
  14,   13,   14,   54,   53
  15,   14,   15,   55,   54
  16,   15,   16,   56,   55
  17,   16,   17,   57,   56
  18,   17,   18,   58,   57
  19,   18,   19,   59,   58
  20,   19,   20,   60,   59
** ... 1780 like lines cut
*Nset, nset=_PickedSet2, internal, generate
    1,  1840,     1
*Elset, elset=_PickedSet2, internal, generate
    1,  1800,     1
** Section: Section-1
*Shell Section, elset=_PickedSet2, material=Material-1
0.02, 3
*End Instance
**  
*Instance, name=Part-2-1, part=Part-2
*Node
      1,          30.,          20.,           0.
      2,          24.,          20.,           0.
      3,          18.,          20.,           0.
      4,          12.,          20.,           0.
      5,           6.,          20.,           0.
      6,           0.,          20.,           0.
      7,          -6.,          20.,           0.
      8,         -12.,          20.,           0.
      9,         -18.,          20.,           0.
     10,         -24.,          20.,           0.
     11,         -30.,          20.,           0.
     12,          30.,          16.,           0.
     13,          24.,          16.,           0.
     14,          18.,          16.,           0.
     15,          12.,          16.,           0.
     16,           6.,          16.,           0.
     17,           0.,          16.,           0.
     18,          -6.,          16.,           0.
     19,         -12.,          16.,           0.
     20,         -18.,          16.,           0.
** ... 101 like lines cut
*Element, type=S4R
  1,   1,   2,  13,  12
  2,   2,   3,  14,  13
  3,   3,   4,  15,  14
  4,   4,   5,  16,  15
  5,   5,   6,  17,  16
  6,   6,   7,  18,  17
  7,   7,   8,  19,  18
  8,   8,   9,  20,  19
  9,   9,  10,  21,  20
 10,  10,  11,  22,  21
 11,  12,  13,  24,  23
 12,  13,  14,  25,  24
 13,  14,  15,  26,  25
 14,  15,  16,  27,  26
 15,  16,  17,  28,  27
 16,  17,  18,  29,  28
 17,  18,  19,  30,  29
 18,  19,  20,  31,  30
 19,  20,  21,  32,  31
 20,  21,  22,  33,  32
** ... 80 like lines cut
*Node
    122,           0.,           0.,           0.
*Nset, nset=Part-2-1-RefPt_, internal
122, 
*Nset, nset=_PickedSet3, internal, generate
   1,  121,    1
*Elset, elset=_PickedSet3, internal, generate
   1,  100,    1
** Section: Section-1
*Shell Section, elset=_PickedSet3, material=Material-1
0.02, 3
*End Instance
**  
*Instance, name=Part-3-1, part=Part-3
          0.,           0.,         100.
*Node
      1,          30.,          20.,           0.
      2,          24.,          20.,           0.
      3,          18.,          20.,           0.
      4,          12.,          20.,           0.
      5,           6.,          20.,           0.
      6,           0.,          20.,           0.
      7,          -6.,          20.,           0.
      8,         -12.,          20.,           0.
      9,         -18.,          20.,           0.
     10,         -24.,          20.,           0.
     11,         -30.,          20.,           0.
     12,          30.,          16.,           0.
     13,          24.,          16.,           0.
     14,          18.,          16.,           0.
     15,          12.,          16.,           0.
     16,           6.,          16.,           0.
     17,           0.,          16.,           0.
     18,          -6.,          16.,           0.
     19,         -12.,          16.,           0.
     20,         -18.,          16.,           0.
** ... 101 like lines cut
*Element, type=S4R
  1,   1,   2,  13,  12
  2,   2,   3,  14,  13
  3,   3,   4,  15,  14
  4,   4,   5,  16,  15
  5,   5,   6,  17,  16
  6,   6,   7,  18,  17
  7,   7,   8,  19,  18
  8,   8,   9,  20,  19
  9,   9,  10,  21,  20
 10,  10,  11,  22,  21
 11,  12,  13,  24,  23
 12,  13,  14,  25,  24
 13,  14,  15,  26,  25
 14,  15,  16,  27,  26
 15,  16,  17,  28,  27
 16,  17,  18,  29,  28
 17,  18,  19,  30,  29
 18,  19,  20,  31,  30
 19,  20,  21,  32,  31
 20,  21,  22,  33,  32
** ... 80 like lines cut
*Node
    122,           0.,           0.,           0.
*Nset, nset=Part-3-1-RefPt_, internal
122, 
*Nset, nset=_PickedSet3, internal, generate
   1,  121,    1
*Elset, elset=_PickedSet3, internal, generate
   1,  100,    1
** Section: Section-1
*Shell Section, elset=_PickedSet3, material=Material-1
0.02, 3
*End Instance
**  
*Nset, nset=_PickedSet9, internal, instance=Part-1-1, generate
 1801,  1840,     1
*Elset, elset=_PickedSet9, internal, instance=Part-1-1, generate
 1761,  1800,     1
*Nset, nset=_PickedSet11, internal, instance=Part-1-1, generate
  1,  40,   1
*Elset, elset=_PickedSet11, internal, instance=Part-1-1, generate
  1,  40,   1
*Nset, nset=_PickedSet12, internal, instance=Part-2-1
 122,
*Nset, nset=_PickedSet13, internal, instance=Part-2-1, generate
   1,  121,    1
*Elset, elset=_PickedSet13, internal, instance=Part-2-1, generate
   1,  100,    1
*Nset, nset=_PickedSet15, internal, instance=Part-3-1, generate
   1,  121,    1
*Elset, elset=_PickedSet15, internal, instance=Part-3-1, generate
   1,  100,    1
*Nset, nset=_PickedSet16, internal, instance=Part-2-1
 122,
*Elset, elset=__PickedSurf8_SNEG, internal, instance=Part-2-1, generate
   1,  100,    1
*Surface, type=ELEMENT, name=_PickedSurf8, internal
__PickedSurf8_SNEG, SNEG
*Elset, elset=__PickedSurf10_SPOS, internal, instance=Part-3-1, generate
   1,  100,    1
*Surface, type=ELEMENT, name=_PickedSurf10, internal
__PickedSurf10_SPOS, SPOS
*Surface, type=NODE, name=_PickedSet9_CNS_, internal
_PickedSet9, 1.
*Surface, type=NODE, name=_PickedSet11_CNS_, internal
_PickedSet11, 1.
** Constraint: Constraint-1
*Tie, name=Constraint-1, adjust=yes
_PickedSet11_CNS_, _PickedSurf10
** Constraint: Constraint-2
*Rigid Body, ref node=_PickedSet12, elset=_PickedSet13
*End Assembly
** 
** MATERIALS
** 
*Material, name=Material-1
*Elastic
 2e+11, 0.3
** 
** INTERACTION PROPERTIES
** 
*Surface Interaction, name=IntProp-1
1.,
*Friction
0.,
*Surface Behavior, pressure-overclosure=HARD
** 
** BOUNDARY CONDITIONS
** 
** Name: BC-1 Type: //
*Boundary
_PickedSet15, ENCASTRE
** 
** INTERACTIONS
** 
** Interaction: Int-1
*Contact Pair, interaction=IntProp-1
_PickedSet9_CNS_, _PickedSurf8
** ----------------------------------------------------------------
** 
** STEP: Step-1
** 
*Step, name=Step-1, nlgeom=NO, perturbation
*Buckle
10, , 18, 50
** 
** BOUNDARY CONDITIONS
** 
** Name: BC-1 Type: //
*Boundary, op=NEW, load case=1
_PickedSet15, ENCASTRE
*Boundary, op=NEW, load case=2
_PickedSet15, ENCASTRE
** 
** LOADS
** 
** Name: Load-1   Type: Concentrated force
*Cload
_PickedSet16, 3, 500.
** 
** OUTPUT REQUESTS
** 
*Restart, write, frequency=0
** 
** FIELD OUTPUT: F-Output-1
** 
*Output, field
*Node Output
U, UR, UT
*End Step
