*Heading
** Job name: Job-1 Model name: Model-1
** Generated by: Abaqus/CAE 2016
*Preprint, echo=NO, model=NO, history=NO, contact=NO
**
** PARTS
**
*Part, name=T-liang
*Node
      1,        1000.,        -110.,         125.
      2,        1000.,        -110.,          95.
      3,        1000.,         -50.,          95.
      4,        1000.,         -20.,   86.4705887
      5,        1000.,         -20.,  -98.5294113
      6,        1000.,         -25.,        -100.
      7,        1000.,         -25.,        -125.
      8,        1000.,          25.,        -125.
      9,        1000.,          25.,        -100.
     10,        1000.,          20.,  -98.5294113
     11,        1000.,          20.,   86.4705887
     12,        1000.,          50.,          95.
     13,        1000.,         110.,          95.
     14,        1000.,         110.,         125.
     15,        1000.,        -110.,         115.
     16,        1000.,        -110.,         105.
     17,        1000.,         -90.,          95.
     18,        1000.,         -70.,          95.
     19,        1000.,         -35.,   90.7352905
     20,        1000.,         -20.,   65.9150314
** ... 3907 like lines cut
*Element, type=C3D8R
   1,    2,   16,   51,   17,   79,   93,  128,   94
   2,    3,   56,   53,   19,   80,  133,  130,   96
   3,   13,   38,   58,   40,   90,  115,  135,  117
   4,   55,   48,   49,   61,  132,  125,  126,  138
   5,   70,    4,   73,   77,  147,   81,  150,  154
   6,   54,   55,   12,   37,  131,  132,   89,  114
   7,   20,   67,   66,   21,   97,  144,  143,   98
   8,    6,    5,   52,   76,   83,   82,  129,  153
   9,   28,    7,    6,   76,  105,   84,   83,  153
  10,    8,   75,   10,    9,   85,  152,   87,   86
  11,    4,   70,   67,   20,   81,  147,  144,   97
  12,   74,   51,   16,   15,  151,  128,   93,   92
  13,   74,   41,   42,   59,  151,  118,  119,  136
  14,   56,    3,   18,   57,  133,   80,   95,  134
  15,   71,   77,   60,   54,  148,  154,  137,  131
  16,   21,   66,   64,   22,   98,  143,  141,   99
  17,   65,   64,   31,   32,  142,  141,  108,  109
  18,   23,   65,   63,   24,  100,  142,  140,  101
  19,   63,   65,   32,   33,  140,  142,  109,  110
  20,   24,   63,   68,   25,  101,  140,  145,  102
** ... 2530 like lines cut
*Nset, nset=_PickedSet3, internal, generate
    1,  3927,     1
*Elset, elset=_PickedSet3, internal, generate
    1,  2550,     1
** Section: Section-1
*Solid Section, elset=_PickedSet3, material=steel
,
*End Part
**  
**
** ASSEMBLY
**
*Assembly, name=Assembly
**  
*Instance, name=T-liang-1, part=T-liang
*End Instance
**  
*Nset, nset=_PickedSet4, internal, instance=T-liang-1, generate
 3851,  3927,     1
*Elset, elset=_PickedSet4, internal, instance=T-liang-1, generate
 2500,  2550,     1
*Elset, elset=__PickedSurf5_S4, internal, instance=T-liang-1
   4,  13,  32,  34,  36,  37,  38,  55,  64,  83,  85,  87,  88,  89, 106, 115
 134, 136, 138, 139, 140, 157, 166, 185, 187, 189, 190, 191, 208, 217, 236, 238
 240, 241, 242
*Elset, elset=__PickedSurf5_S6, internal, instance=T-liang-1
  30,  31,  33,  35,  81,  82,  84,  86, 132, 133, 135, 137, 183, 184, 186, 188
 234, 235, 237, 239
*Surface, type=ELEMENT, name=_PickedSurf5, internal
__PickedSurf5_S4, S4
__PickedSurf5_S6, S6
*End Assembly
** 
** MATERIALS
** 
*Material, name=steel
*Elastic
 2.1e+11, 0.3
** ----------------------------------------------------------------
** 
** STEP: Step-1
** 
*Step, name=Step-1, nlgeom=NO
*Static
1., 1., 1e-05, 1.
** 
** BOUNDARY CONDITIONS
** 
** Name: BC-1 Type: Symmetry/Antisymmetry/Encastre
*Boundary
_PickedSet4, ENCASTRE
** 
** LOADS
** 
** Name: Load-1   Type: Pressure
*Dsload
_PickedSurf5, P, 100.
** 
** OUTPUT REQUESTS
** 
*Restart, write, frequency=0
** 
** FIELD OUTPUT: F-Output-1
** 
*Output, field, variable=PRESELECT
** 
** HISTORY OUTPUT: H-Output-1
** 
*Output, history, variable=PRESELECT
*End Step
