*Heading
** Job name: lhl-1 Model name: Model-1
** Generated by: Abaqus/CAE 2020
*Preprint, echo=NO, model=NO, history=NO, contact=NO
**
** PARTS
**
*Part, name=Part-1
*Node
      1,   960.784302,           0.
      2,   941.176453,           0.
      3,   901.960754,           0.
      4,   862.745117,           0.
      5,   823.529419,           0.
      6,    803.92157,           0.
      7,   764.705872,           0.
      8,   725.490173,           0.
      9,   705.882324,           0.
     10,   666.666687,           0.
     11,   627.450989,           0.
     12,    607.84314,           0.
     13,   568.627441,           0.
     14,   529.411743,           0.
     15,   490.196075,           0.
     16,   470.588226,           0.
     17,   431.372559,           0.
     18,    392.15686,           0.
     19,   372.549011,           0.
     20,   333.333344,           0.
** ... 1203 like lines cut
*Element, type=CPS4R
   1,  293,   29,  574, 1083
   2, 1083,  344,   31,  293
   3,  504,   68,  345,  512
   4,  511,   69,  346,  513
   5,  510,   70,  347,  514
   6,  516,  205,  624,  508
   7,  507,  517,  228,  625
   8,  506,  518,  874,  250
   9,  505,  519,  651,  272
  10,  328,  520,  575,   43
  11,  505,  272,  575,  520
  12,   29,   28,  529,  574
  13,   99,  574,  529,  666
  14,  126,  782,  692, 1121
  15,  819,  757,  684,  885
  16,  180,  766,  747,  623
  17,  205,  623,  747,  760
  18,  695,  820, 1129,  756
  19,  756,  827,  685, 1107
  20,  272,  651,  752,  660
** ... 1124 like lines cut
*Nset, nset=Set-1, generate
    1,  1223,     1
*Elset, elset=Set-1, generate
    1,  1144,     1
** Section: Section-1
*Solid Section, elset=Set-1, material=Material-1
,
*End Part
**  
**
** ASSEMBLY
**
*Assembly, name=Assembly
**  
*Instance, name=Part-1-1, part=Part-1
*End Instance
**  
*Instance, name=Part-1-2, part=Part-1
*End Instance
**  
*Nset, nset=Set-1, instance=Part-1-2
  31,  66,  67,  68,  69,  70,  71,  72,  73,  74,  75, 344, 345, 346, 347, 348
 349, 350, 351, 352, 353
*Elset, elset=Set-1, instance=Part-1-2
   2,   3,   4,   5, 288, 289, 290, 291, 292, 293, 471, 486, 487, 492, 641, 643
 644, 645, 647, 649
*Nset, nset=Set-2, instance=Part-1-2
 35,
*Elset, elset=_Surf-1_S3, internal, instance=Part-1-2
 255, 256, 276, 432, 457, 464, 467, 501
*Elset, elset=_Surf-1_S1, internal, instance=Part-1-2
 263, 268, 269, 270, 275, 280, 281, 376, 416, 447, 458, 459, 460, 461, 462, 465
 466, 468, 469, 524
*Elset, elset=_Surf-1_S4, internal, instance=Part-1-2
 456, 463
*Surface, type=ELEMENT, name=Surf-1
_Surf-1_S3, S3
_Surf-1_S1, S1
_Surf-1_S4, S4
*End Assembly
** 
** MATERIALS
** 
*Material, name=Material-1
*Elastic
 2.1e+11, 0.3
** ----------------------------------------------------------------
** 
** STEP: Step-1
** 
*Step, name=Step-1, nlgeom=YES, inc=1000
*Static
1., 1., 1e-05, 1.
** 
** BOUNDARY CONDITIONS
** 
** Name: BC-1 Type: Displacement/Rotation
*Boundary
Set-1, 1, 1
Set-1, 2, 2
** 
** LOADS
** 
** Name: Load-1   Type: Concentrated force
*Cload
Set-2, 2, -100000.
** 
** OUTPUT REQUESTS
** 
*Restart, write, frequency=0
** 
** FIELD OUTPUT: F-Output-1
** 
*Output, field, variable=PRESELECT
** 
** HISTORY OUTPUT: H-Output-1
** 
*Output, history, variable=PRESELECT
*End Step
