*Heading
** Job name: bridge Model name: bridge
** Generated by: Abaqus/CAE 2022
*Preprint, echo=NO, model=NO, history=NO, contact=NO
**
** PARTS
**
*Part, name=bridge
*Node
      1,           0.,          80.,          50.
      2,           0.,          50.,          50.
      3,   158.179749,           0.,          50.
      4,   200.898697,           0.,          50.
      5,         250.,          70.,          50.
      6,    119.91098,   33.5679207,          50.
      7,   101.960983,   41.1518555,          50.
      8,   100.305428,   45.2017059,          50.
      9,   124.172279,   40.0012627,          50.
     10,   124.172279,   36.2898903,          50.
     11,   137.172287,   26.6165562,          50.
     12,   137.172287,   41.3420944,          50.
     13,   137.692123,   43.0299377,          50.
     14,    170.39035,   43.5560341,          50.
     15,   170.965775,   41.7892761,          50.
     16,   170.965775,   8.99572372,          50.
     17,   166.217407,    6.5578618,          50.
     18,   138.713211,   23.9952755,          50.
     19,    170.39035,   43.5560341,           0.
     20,   137.692123,   43.0299377,           0.
** ... 11600 like lines cut
*Element, type=C3D8
   1, 1092, 1241, 1047, 1198, 4932, 5081, 4887, 5038
   2,   76,  946,  948,   77, 2549, 4786, 4788, 2548
   3,  160,  996,  963,  161, 2084, 4836, 4803, 2083
   4,  897,  921, 1071,  922, 4737, 4761, 4911, 4762
   5,   85,  956,  950,   86, 2540, 4796, 4790, 2539
   6, 1243,  886,    8,  877, 5083, 4726,  258, 4717
   7, 1050,  974,  990, 1056, 4890, 4814, 4830, 4896
   8, 1056, 1264, 1040, 1132, 4896, 5104, 4880, 4972
   9, 1223, 1116, 1069, 1130, 5063, 4956, 4909, 4970
  10, 1118, 1003, 1119, 1053, 4958, 4843, 4959, 4893
  11, 1053, 1119, 1277, 1067, 4893, 4959, 5117, 4907
  12,  972,  141,  140,  998, 4812, 2103, 2104, 4838
  13, 1093, 1170, 1269, 1207, 4933, 5010, 5109, 5047
  14,  959, 1036, 1064,  958, 4799, 4876, 4904, 4798
  15,  911,  908,  914,  917, 4751, 4748, 4754, 4757
  16,  190,   15,  872,  890, 1943,  274, 4712, 4730
  17, 1201, 1006,  194, 1015, 5041, 4846, 1939, 4855
  18,  105,  876,  892, 1103, 2439, 4716, 4732, 4943
  19, 1234,  876,  105,  104, 5074, 4716, 2439, 2440
  20,  875,  884,  197,   17, 4715, 4724, 2767,  290
** ... 9142 like lines cut
*Nset, nset=Set-6, generate
     1,  11620,      1
*Elset, elset=Set-6, generate
    1,  9162,     1
*Nset, nset=Cast
    3,    4,   35,   36,   37,   38,   67,   68,  103,  104,  105,  106,  107,  108,  109,  211
  212,  213,  214,  215,  216,  217,  218,  331,  332,  333,  334,  335,  336,  337,  338,  444
  445,  446,  447,  448,  449,  450,  511,  512,  513,  514,  515,  516,  517,  611,  612,  613
  614,  615,  616,  617,  618,  619,  620,  621,  622,  623,  624,  625,  626,  832,  833,  834
  835,  836,  837,  838, 2435, 2436, 2437, 2438, 2439, 2440, 2441, 2442, 2443, 2444, 2445, 2446
 2447, 2448, 2449, 2450, 2451, 2452, 2453, 2454, 2455, 2456, 2457, 2458, 2459, 2460, 2461, 2462
 2463, 2464, 2465, 2466, 2467, 2468, 2469, 2470, 2471, 2472, 2473, 2474, 2475, 2476, 2477, 2478
 2479, 2480, 2481, 2482, 2483, 2484, 2485, 2486, 2487, 2488, 2489, 2490, 3909, 3910, 3911, 3912
 3913, 3914, 3915, 3916, 3917, 3918, 3919, 3920, 3921, 3922, 3923, 3924, 3925, 3926, 3927, 3928
 3929, 3930, 3931, 3932, 3933, 3934, 3935, 3936, 3937, 3938, 3939, 3940, 3941, 3942, 3943, 3944
 3945, 3946, 3947, 3948, 3949, 3950, 3951, 3952, 3953, 3954, 3955, 3956, 3957, 3958, 3959, 3960
 3961, 3962, 3963, 3964
*Nset, nset=Load
    1,    5,   33,   34,   39,   66,  125,  126,  127,  128,  129,  130,  131,  132,  133,  134
  135,  136,  137,  138,  139,  140,  141,  142,  143,  144,  145,  146,  147,  148,  149,  150
  151,  152,  153,  154,  155,  156,  157,  158,  159,  160,  161,  162,  163,  164,  165,  166
  167,  168,  169,  203,  204,  205,  206,  207,  208,  209,  210,  323,  324,  325,  326,  327
  328,  329,  330,  384,  385,  386,  387,  388,  389,  390,  391,  392,  393,  394,  395,  396
  397,  398,  399,  400,  401,  402,  403,  404,  405,  406,  407,  408,  409,  410,  411,  412
  413,  414,  415,  416,  417,  418,  419,  420,  421,  422,  423,  424,  425,  426,  427,  428
  533,  534,  535,  536,  537,  538,  539,  540,  541,  542,  543,  544,  545,  546,  547,  548
  549,  550,  551,  552,  553,  554,  555,  556,  557,  558,  559,  560,  561,  562,  563,  564
  565,  566,  567,  568,  569,  570,  571,  572,  573,  574,  575,  576,  577,  627,  628,  629
  630,  631,  632,  633,  634,  772,  773,  774,  775,  776,  777,  778,  779,  780,  781,  782
  783,  784,  785,  786,  787,  788,  789,  790,  791,  792,  793,  794,  795,  796,  797,  798
  799,  800,  801,  802,  803,  804,  805,  806,  807,  808,  809,  810,  811,  812,  813,  814
  815,  816, 2075, 2076, 2077, 2078, 2079, 2080, 2081, 2082, 2083, 2084, 2085, 2086, 2087, 2088
 2089, 2090, 2091, 2092, 2093, 2094, 2095, 2096, 2097, 2098, 2099, 2100, 2101, 2102, 2103, 2104
 2105, 2106, 2107, 2108, 2109, 2110, 2111, 2112, 2113, 2114, 2115, 2116, 2117, 2118, 2119, 2120
 2121, 2122, 2123, 2124, 2125, 2126, 2127, 2128, 2129, 2130, 2131, 2132, 2133, 2134, 2135, 2136
 2137, 2138, 2139, 2140, 2141, 2142, 2143, 2144, 2145, 2146, 2147, 2148, 2149, 2150, 2151, 2152
 2153, 2154, 2155, 2156, 2157, 2158, 2159, 2160, 2161, 2162, 2163, 2164, 2165, 2166, 2167, 2168
 2169, 2170, 2171, 2172, 2173, 2174, 2175, 2176, 2177, 2178, 2179, 2180, 2181, 2182, 2183, 2184
** ... 39 like lines cut
** Section: Steel-45
*Solid Section, elset=Set-6, controls=EC-1, material=SI_mm111111_45
,
*End Part
**  
**
** ASSEMBLY
**
*Assembly, name=Assembly
**  
*Instance, name=bridge-1, part=bridge
*End Instance
**  
*End Assembly
** 
** ELEMENT CONTROLS
** 
*Section Controls, name=EC-1, DISTORTION CONTROL=NO, ELEMENT DELETION=NO
1., 1., 1.
** 
** MATERIALS
** 
*Material, name=SI_mm111111_45
*Elastic
210000., 0.3
** 
** BOUNDARY CONDITIONS
** 
** Name: BC-1 Type: Displacement/Rotation
*Boundary
bridge-1.Cast, 1, 1
bridge-1.Cast, 2, 2
bridge-1.Cast, 3, 3
** ----------------------------------------------------------------
** 
** STEP: Step-1
** 
*Step, name=Step-1, nlgeom=NO
*Static
1., 1., 1e-05, 1.
** 
** LOADS
** 
** Name: Load-1   Type: Concentrated force
*Cload
bridge-1.Load, 2, -10.7526
** 
** OUTPUT REQUESTS
** 
*Restart, write, frequency=0
** 
** FIELD OUTPUT: F-Output-1
** 
*Output, field, variable=PRESELECT
** 
** HISTORY OUTPUT: H-Output-1
** 
*Output, history, variable=PRESELECT
*End Step
